case_studies/2-bus_src-gfmc/outputs/small_signal_model/A.csv
Index,"('infinite_sources_0', 'i_bus_d')","('infinite_sources_0', 'i_bus_q')","('gfmi_c_0', 'angle_pc')","('gfmi_c_0', 'w_pc')","('gfmi_c_0', 'p_pc')","('gfmi_c_0', 'q_pc')","('gfmi_c_0', 'pi_vc')","('gfmi_c_0', 'i_vsc_d')","('gfmi_c_0', 'i_vsc_q')","('gfmi_c_0', 'i_bus_d')","('gfmi_c_0', 'i_bus_q')","('gfmi_c_0', 'v_lcl_sh_d')","('gfmi_c_0', 'v_lcl_sh_q')","('shunt_parallel_rc_0', 'v_bus_D')","('shunt_parallel_rc_0', 'v_bus_Q')","('shunt_parallel_rc_1', 'v_bus_D')","('shunt_parallel_rc_1', 'v_bus_Q')","('branch_series_rl_0', 'i_br_D')","('branch_series_rl_0', 'i_br_Q')"
"('infinite_sources_0', 'i_bus_d')",-7.5398223686155035,376.99111843077515,0.0,0.0,0.0,0.0,0.0,0.0,0.0,0.0,0.0,0.0,0.0,-697.9546674137151,285.21657689930515,0.0,0.0,0.0,0.0
"('infinite_sources_0', 'i_bus_q')",-376.99111843077515,-7.5398223686155035,0.0,0.0,0.0,0.0,0.0,0.0,0.0,0.0,0.0,0.0,0.0,-285.21657689930515,-697.9546674137151,0.0,0.0,0.0,0.0
"('gfmi_c_0', 'angle_pc')",0.0,0.0,0.0,376.99111843077515,0.0,0.0,0.0,0.0,0.0,0.0,0.0,0.0,0.0,0.0,0.0,0.0,0.0,0.0,0.0
"('gfmi_c_0', 'w_pc')",0.0,0.0,0.0,-70.0,-1.0,0.0,0.0,0.0,0.0,0.0,0.0,0.0,0.0,0.0,0.0,0.0,0.0,0.0,0.0
"('gfmi_c_0', 'p_pc')",0.0,0.0,0.0,0.0,-1000.0,0.0,0.0,0.0,0.0,1305.929900975793,-175.63410139764756,552.3230020226115,-552.3353845084035,0.0,0.0,0.0,0.0,0.0,0.0
"('gfmi_c_0', 'q_pc')",0.0,0.0,0.0,0.0,0.0,-1000.0,0.0,0.0,0.0,-175.63410139764756,-1305.929900975793,552.3353845084035,552.3230020226115,0.0,0.0,0.0,0.0,0.0,0.0
"('gfmi_c_0', 'pi_vc')",0.0,0.0,0.0,0.0,0.0,0.0,0.0,0.0,0.0,0.0,0.0,-9.9107712566067,1.3328965073172159,0.0,0.0,0.0,0.0,0.0,0.0
"('gfmi_c_0', 'i_vsc_d')",0.0,0.0,0.0,-225.20563327909304,0.0,0.0,3769.9111843077517,-75.39822368615502,376.99111843077515,0.0,0.0,-7506.183924847491,502.4901450459911,0.0,0.0,0.0,0.0,0.0,0.0
"('gfmi_c_0', 'i_vsc_q')",0.0,0.0,0.0,-707.1660898606517,0.0,0.0,0.0,-376.99111843077515,-75.39822368615502,0.0,0.0,0.0,-3769.9111843077517,0.0,0.0,0.0,0.0,0.0,0.0
"('gfmi_c_0', 'i_bus_d')",0.0,0.0,508.04951771675695,-208.2255343547153,0.0,0.0,0.0,0.0,0.0,-56.54866776461627,376.99111843077515,1884.9555921538758,0.0,0.0,0.0,-1631.2653040736207,-944.4739764110853,0.0,0.0
"('gfmi_c_0', 'i_bus_q')",0.0,0.0,2222.161205510431,-208.2208662675476,0.0,0.0,0.0,0.0,0.0,-376.99111843077515,-56.54866776461627,0.0,1884.9555921538758,0.0,0.0,944.4739764110853,-1631.2653040736207,0.0,0.0
"('gfmi_c_0', 'v_lcl_sh_d')",0.0,0.0,0.0,-66.21249632048333,0.0,0.0,0.0,3769.9111843077517,0.0,-3769.9111843077517,0.0,-3769.9111843077517,376.99111843077515,0.0,0.0,0.0,0.0,0.0,0.0
"('gfmi_c_0', 'v_lcl_sh_q')",0.0,0.0,0.0,-492.3239739610557,0.0,0.0,0.0,0.0,3769.9111843077517,0.0,-3769.9111843077517,-376.99111843077515,-3769.9111843077517,0.0,0.0,0.0,0.0,0.0,0.0
"('shunt_parallel_rc_0', 'v_bus_D')",5234.6599794295635,2139.124316049167,0.0,0.0,0.0,0.0,0.0,0.0,0.0,0.0,0.0,0.0,0.0,-282.7433374093647,376.99111843077515,0.0,0.0,-5654.8667481872935,0.0
"('shunt_parallel_rc_0', 'v_bus_Q')",-2139.124316049167,5234.6599794295635,0.0,0.0,0.0,0.0,0.0,0.0,0.0,0.0,0.0,0.0,0.0,-376.99111843077515,-282.7433374093647,0.0,0.0,0.0,-5654.8667481872935
"('shunt_parallel_rc_1', 'v_bus_D')",0.0,0.0,1138.0525352410891,0.0,0.0,0.0,0.0,0.0,0.0,4893.795887751882,-2833.421915066146,0.0,0.0,0.0,0.0,-282.7433374093647,376.99111843077515,5654.8667481872935,0.0
"('shunt_parallel_rc_1', 'v_bus_Q')",0.0,0.0,4267.955218941627,0.0,0.0,0.0,0.0,0.0,0.0,2833.421915066146,4893.795887751882,0.0,0.0,0.0,0.0,-376.99111843077515,-282.7433374093647,0.0,5654.8667481872935
"('branch_series_rl_0', 'i_br_D')",0.0,0.0,0.0,0.0,0.0,0.0,0.0,0.0,0.0,0.0,0.0,0.0,0.0,753.9822368615503,0.0,-753.9822368615503,0.0,-7.5398223686155035,376.99111843077515
"('branch_series_rl_0', 'i_br_Q')",0.0,0.0,0.0,0.0,0.0,0.0,0.0,0.0,0.0,0.0,0.0,0.0,0.0,0.0,753.9822368615503,0.0,-753.9822368615503,-376.99111843077515,-7.5398223686155035
